Circuit: * C:\github\Digirig-Lite\simulation\555Monostable_retriggerable_timer.asc

Direct Newton iteration for .op point succeeded.

Date: Sun Feb 09 19:57:15 2025
Total elapsed time: 0.237 seconds.

tnom = 27
temp = 27
method = modified trap
totiter = 12483
traniter = 12468
tranpoints = 3992
accept = 3433
rejected = 559
matrix size = 41
fillins = 28
solver = Alternate
Matrix Compiler1: 4.71 KB object code size  1.3/0.8/[0.7]
Matrix Compiler2: 4.03 KB object code size  0.6/0.7/[0.5]

