Circuit: * C:\github\Digirig-Lite\simulation\HT_MIC.asc

.step rparam=50
.step rparam=1e+007

Date: Fri Feb 14 10:47:11 2025
Total elapsed time: 0.107 seconds.

tnom = 27
temp = 27
method = trap
totiter = 0
traniter = 0
tranpoints = 0
accept = 0
rejected = 0
matrix size = 8
fillins = 0

